C6H14_4_1
 OpenBabel09141505113D
VDW energy = 9.73
 20 19  0  0  0  0  0  0  0  0999 V2000
   -1.5344   -1.2508   -0.0426 C   0  0  0  0  0  0  0  0  0  0  0  0
   -1.0768   -2.1681    0.3896 H   0  0  0  0  0  0  0  0  0  0  0  0
   -1.6022   -1.3644   -1.1488 H   0  0  0  0  0  0  0  0  0  0  0  0
   -2.5664   -1.1828    0.3720 H   0  0  0  0  0  0  0  0  0  0  0  0
   -0.7114   -0.0001    0.3235 C   0  0  0  0  0  0  0  0  0  0  0  0
   -0.5926   -0.0002    1.4330 H   0  0  0  0  0  0  0  0  0  0  0  0
    0.7113   -0.0001   -0.3234 C   0  0  0  0  0  0  0  0  0  0  0  0
    0.5925    0.0000   -1.4329 H   0  0  0  0  0  0  0  0  0  0  0  0
    1.5343    1.2506    0.0427 C   0  0  0  0  0  0  0  0  0  0  0  0
    1.6021    1.3643    1.1489 H   0  0  0  0  0  0  0  0  0  0  0  0
    2.5663    1.1826   -0.3718 H   0  0  0  0  0  0  0  0  0  0  0  0
    1.0768    2.1679   -0.3896 H   0  0  0  0  0  0  0  0  0  0  0  0
   -1.5341    1.2510   -0.0423 C   0  0  0  0  0  0  0  0  0  0  0  0
   -1.0763    2.1680    0.3900 H   0  0  0  0  0  0  0  0  0  0  0  0
   -1.6021    1.3647   -1.1485 H   0  0  0  0  0  0  0  0  0  0  0  0
   -2.5660    1.1831    0.3725 H   0  0  0  0  0  0  0  0  0  0  0  0
    1.5340   -1.2512    0.0424 C   0  0  0  0  0  0  0  0  0  0  0  0
    1.6020   -1.3649    1.1486 H   0  0  0  0  0  0  0  0  0  0  0  0
    1.0762   -2.1682   -0.3899 H   0  0  0  0  0  0  0  0  0  0  0  0
    2.5659   -1.1833   -0.3724 H   0  0  0  0  0  0  0  0  0  0  0  0
  1  2  1  0  0  0  0
  1  5  1  0  0  0  0
  1  3  1  0  0  0  0
  1  4  1  0  0  0  0
  5  7  1  0  0  0  0
  5  6  1  0  0  0  0
  5 13  1  0  0  0  0
  7  9  1  0  0  0  0
  7 17  1  0  0  0  0
  7  8  1  0  0  0  0
  9 11  1  0  0  0  0
  9 10  1  0  0  0  0
  9 12  1  0  0  0  0
 13 14  1  0  0  0  0
 13 15  1  0  0  0  0
 13 16  1  0  0  0  0
 17 18  1  0  0  0  0
 17 20  1  0  0  0  0
 17 19  1  0  0  0  0
M  END
$$$$
C6H14_4_2
 OpenBabel09141505113D
VDW energy = 18.07
 20 19  0  0  0  0  0  0  0  0999 V2000
   -1.4226   -1.2911    0.4191 C   0  0  0  0  0  0  0  0  0  0  0  0
   -0.7194   -1.9952    0.9195 H   0  0  0  0  0  0  0  0  0  0  0  0
   -1.7422   -1.7318   -0.5520 H   0  0  0  0  0  0  0  0  0  0  0  0
   -2.3231   -1.1879    1.0672 H   0  0  0  0  0  0  0  0  0  0  0  0
   -0.7581    0.0810    0.2154 C   0  0  0  0  0  0  0  0  0  0  0  0
   -0.5877    0.4840    1.2422 H   0  0  0  0  0  0  0  0  0  0  0  0
    0.6385   -0.0262   -0.4679 C   0  0  0  0  0  0  0  0  0  0  0  0
    1.2268   -0.7777    0.1107 H   0  0  0  0  0  0  0  0  0  0  0  0
    0.6051   -0.5245   -1.9231 C   0  0  0  0  0  0  0  0  0  0  0  0
    0.0766    0.2006   -2.5819 H   0  0  0  0  0  0  0  0  0  0  0  0
    1.6435   -0.6519   -2.3064 H   0  0  0  0  0  0  0  0  0  0  0  0
    0.0984   -1.5123   -1.9934 H   0  0  0  0  0  0  0  0  0  0  0  0
   -1.7386    1.0451   -0.4746 C   0  0  0  0  0  0  0  0  0  0  0  0
   -1.3028    2.0655   -0.5543 H   0  0  0  0  0  0  0  0  0  0  0  0
   -2.0032    0.6844   -1.4940 H   0  0  0  0  0  0  0  0  0  0  0  0
   -2.6766    1.1264    0.1213 H   0  0  0  0  0  0  0  0  0  0  0  0
    1.4425    1.2819   -0.3763 C   0  0  0  0  0  0  0  0  0  0  0  0
    0.9984    2.0734   -1.0211 H   0  0  0  0  0  0  0  0  0  0  0  0
    1.4726    1.6491    0.6748 H   0  0  0  0  0  0  0  0  0  0  0  0
    2.4919    1.1103   -0.7093 H   0  0  0  0  0  0  0  0  0  0  0  0
  1  2  1  0  0  0  0
  1  5  1  0  0  0  0
  1  3  1  0  0  0  0
  1  4  1  0  0  0  0
  5  7  1  0  0  0  0
  5  6  1  0  0  0  0
  5 13  1  0  0  0  0
  7  9  1  0  0  0  0
  7 17  1  0  0  0  0
  7  8  1  0  0  0  0
  9 11  1  0  0  0  0
  9 10  1  0  0  0  0
  9 12  1  0  0  0  0
 13 14  1  0  0  0  0
 13 15  1  0  0  0  0
 13 16  1  0  0  0  0
 17 18  1  0  0  0  0
 17 20  1  0  0  0  0
 17 19  1  0  0  0  0
M  END
$$$$
C6H14_4_3
 OpenBabel09141505113D
VDW energy = 18.07
 20 19  0  0  0  0  0  0  0  0999 V2000
   -1.7375   -1.0483   -0.4709 C   0  0  0  0  0  0  0  0  0  0  0  0
   -1.3031   -2.0698   -0.5413 H   0  0  0  0  0  0  0  0  0  0  0  0
   -1.9978   -0.6943   -1.4937 H   0  0  0  0  0  0  0  0  0  0  0  0
   -2.6778   -1.1238    0.1219 H   0  0  0  0  0  0  0  0  0  0  0  0
   -0.7578   -0.0811    0.2160 C   0  0  0  0  0  0  0  0  0  0  0  0
   -0.5863   -0.4817    1.2437 H   0  0  0  0  0  0  0  0  0  0  0  0
    0.6389    0.0267   -0.4675 C   0  0  0  0  0  0  0  0  0  0  0  0
    1.2277    0.7761    0.1135 H   0  0  0  0  0  0  0  0  0  0  0  0
    1.4418   -1.2822   -0.3806 C   0  0  0  0  0  0  0  0  0  0  0  0
    0.9949   -2.0719   -1.0256 H   0  0  0  0  0  0  0  0  0  0  0  0
    2.4902   -1.1110   -0.7166 H   0  0  0  0  0  0  0  0  0  0  0  0
    1.4748   -1.6513    0.6698 H   0  0  0  0  0  0  0  0  0  0  0  0
   -1.4249    1.2902    0.4166 C   0  0  0  0  0  0  0  0  0  0  0  0
   -0.7242    1.9959    0.9183 H   0  0  0  0  0  0  0  0  0  0  0  0
   -1.7425    1.7291   -0.5559 H   0  0  0  0  0  0  0  0  0  0  0  0
   -2.3270    1.1860    1.0622 H   0  0  0  0  0  0  0  0  0  0  0  0
    0.6068    0.5297   -1.9212 C   0  0  0  0  0  0  0  0  0  0  0  0
    0.0716   -0.1893   -2.5814 H   0  0  0  0  0  0  0  0  0  0  0  0
    0.1079    1.5216   -1.9871 H   0  0  0  0  0  0  0  0  0  0  0  0
    1.6453    0.6503   -2.3062 H   0  0  0  0  0  0  0  0  0  0  0  0
  1  2  1  0  0  0  0
  1  5  1  0  0  0  0
  1  3  1  0  0  0  0
  1  4  1  0  0  0  0
  5  7  1  0  0  0  0
  5  6  1  0  0  0  0
  5 13  1  0  0  0  0
  7  9  1  0  0  0  0
  7 17  1  0  0  0  0
  7  8  1  0  0  0  0
  9 11  1  0  0  0  0
  9 10  1  0  0  0  0
  9 12  1  0  0  0  0
 13 14  1  0  0  0  0
 13 15  1  0  0  0  0
 13 16  1  0  0  0  0
 17 18  1  0  0  0  0
 17 20  1  0  0  0  0
 17 19  1  0  0  0  0
M  END
$$$$
