C6H14_3_1
 OpenBabel09141505113D
VDW energy = 8.10
 20 19  0  0  0  0  0  0  0  0999 V2000
   -2.5511   -0.2420   -0.3718 C   0  0  0  0  0  0  0  0  0  0  0  0
   -2.4303   -0.3363   -1.4750 H   0  0  0  0  0  0  0  0  0  0  0  0
   -2.8437    0.8016   -0.1213 H   0  0  0  0  0  0  0  0  0  0  0  0
   -3.3749   -0.9173   -0.0468 H   0  0  0  0  0  0  0  0  0  0  0  0
   -1.2577   -0.6384    0.3430 C   0  0  0  0  0  0  0  0  0  0  0  0
   -1.3885   -0.4821    1.4393 H   0  0  0  0  0  0  0  0  0  0  0  0
   -1.1271   -1.7328    0.1726 H   0  0  0  0  0  0  0  0  0  0  0  0
    0.0078    0.1068   -0.1474 C   0  0  0  0  0  0  0  0  0  0  0  0
    0.0456    0.0210   -1.2593 H   0  0  0  0  0  0  0  0  0  0  0  0
    1.2724   -0.5828    0.4192 C   0  0  0  0  0  0  0  0  0  0  0  0
    1.2293   -1.6709    0.1779 H   0  0  0  0  0  0  0  0  0  0  0  0
    1.2927   -0.4839    1.5297 H   0  0  0  0  0  0  0  0  0  0  0  0
    2.5960   -0.0637   -0.1462 C   0  0  0  0  0  0  0  0  0  0  0  0
    2.8054    0.9671    0.2167 H   0  0  0  0  0  0  0  0  0  0  0  0
    3.4276   -0.7227    0.1922 H   0  0  0  0  0  0  0  0  0  0  0  0
    2.5721   -0.0655   -1.2596 H   0  0  0  0  0  0  0  0  0  0  0  0
   -0.0373    1.6037    0.2119 C   0  0  0  0  0  0  0  0  0  0  0  0
   -0.9381    2.0907   -0.2215 H   0  0  0  0  0  0  0  0  0  0  0  0
   -0.0516    1.7410    1.3173 H   0  0  0  0  0  0  0  0  0  0  0  0
    0.8455    2.1368   -0.2049 H   0  0  0  0  0  0  0  0  0  0  0  0
  1  2  1  0  0  0  0
  1  5  1  0  0  0  0
  1  3  1  0  0  0  0
  1  4  1  0  0  0  0
  5  7  1  0  0  0  0
  5  8  1  0  0  0  0
  5  6  1  0  0  0  0
  8  9  1  0  0  0  0
  8 10  1  0  0  0  0
  8 17  1  0  0  0  0
 10 13  1  0  0  0  0
 10 12  1  0  0  0  0
 10 11  1  0  0  0  0
 13 14  1  0  0  0  0
 13 15  1  0  0  0  0
 13 16  1  0  0  0  0
 17 20  1  0  0  0  0
 17 18  1  0  0  0  0
 17 19  1  0  0  0  0
M  END
$$$$
C6H14_3_2
 OpenBabel09141505113D
VDW energy = 13.76
 20 19  0  0  0  0  0  0  0  0999 V2000
   -2.6113   -0.1515   -0.5436 C   0  0  0  0  0  0  0  0  0  0  0  0
   -2.4362   -0.1190   -1.6429 H   0  0  0  0  0  0  0  0  0  0  0  0
   -2.8355    0.8747   -0.1765 H   0  0  0  0  0  0  0  0  0  0  0  0
   -3.4992   -0.7936   -0.3448 H   0  0  0  0  0  0  0  0  0  0  0  0
   -1.3930   -0.7334    0.1747 C   0  0  0  0  0  0  0  0  0  0  0  0
   -1.5956   -0.7281    1.2707 H   0  0  0  0  0  0  0  0  0  0  0  0
   -1.2988   -1.7963   -0.1489 H   0  0  0  0  0  0  0  0  0  0  0  0
   -0.0665    0.0047   -0.1225 C   0  0  0  0  0  0  0  0  0  0  0  0
    0.0135    0.1141   -1.2304 H   0  0  0  0  0  0  0  0  0  0  0  0
    1.1722   -0.8210    0.3000 C   0  0  0  0  0  0  0  0  0  0  0  0
    2.0939   -0.2727   -0.0053 H   0  0  0  0  0  0  0  0  0  0  0  0
    1.1698   -1.7849   -0.2605 H   0  0  0  0  0  0  0  0  0  0  0  0
    1.2836   -1.1430    1.7923 C   0  0  0  0  0  0  0  0  0  0  0  0
    0.4221   -1.7625    2.1278 H   0  0  0  0  0  0  0  0  0  0  0  0
    2.2188   -1.7193    1.9751 H   0  0  0  0  0  0  0  0  0  0  0  0
    1.3245   -0.2103    2.3975 H   0  0  0  0  0  0  0  0  0  0  0  0
   -0.0367    1.4276    0.4619 C   0  0  0  0  0  0  0  0  0  0  0  0
   -0.7999    2.0683   -0.0336 H   0  0  0  0  0  0  0  0  0  0  0  0
   -0.2433    1.4136    1.5559 H   0  0  0  0  0  0  0  0  0  0  0  0
    0.9586    1.8978    0.2910 H   0  0  0  0  0  0  0  0  0  0  0  0
  1  2  1  0  0  0  0
  1  5  1  0  0  0  0
  1  3  1  0  0  0  0
  1  4  1  0  0  0  0
  5  7  1  0  0  0  0
  5  8  1  0  0  0  0
  5  6  1  0  0  0  0
  8  9  1  0  0  0  0
  8 10  1  0  0  0  0
  8 17  1  0  0  0  0
 10 13  1  0  0  0  0
 10 12  1  0  0  0  0
 10 11  1  0  0  0  0
 13 14  1  0  0  0  0
 13 15  1  0  0  0  0
 13 16  1  0  0  0  0
 17 20  1  0  0  0  0
 17 18  1  0  0  0  0
 17 19  1  0  0  0  0
M  END
$$$$
C6H14_3_3
 OpenBabel09141505113D
VDW energy = 13.76
 20 19  0  0  0  0  0  0  0  0999 V2000
   -2.5191   -0.6561   -0.4647 C   0  0  0  0  0  0  0  0  0  0  0  0
   -2.2703   -1.3364   -1.3093 H   0  0  0  0  0  0  0  0  0  0  0  0
   -2.8709    0.3194   -0.8686 H   0  0  0  0  0  0  0  0  0  0  0  0
   -3.3516   -1.1122    0.1176 H   0  0  0  0  0  0  0  0  0  0  0  0
   -1.3096   -0.4594    0.4526 C   0  0  0  0  0  0  0  0  0  0  0  0
   -1.6211    0.2011    1.2953 H   0  0  0  0  0  0  0  0  0  0  0  0
   -1.0480   -1.4480    0.8972 H   0  0  0  0  0  0  0  0  0  0  0  0
   -0.0480    0.1419   -0.2115 C   0  0  0  0  0  0  0  0  0  0  0  0
    0.7036    0.2344    0.6084 H   0  0  0  0  0  0  0  0  0  0  0  0
   -0.2999    1.5621   -0.7706 C   0  0  0  0  0  0  0  0  0  0  0  0
   -0.8673    2.1554   -0.0160 H   0  0  0  0  0  0  0  0  0  0  0  0
   -0.9208    1.5041   -1.6944 H   0  0  0  0  0  0  0  0  0  0  0  0
    0.9732    2.3457   -1.0930 C   0  0  0  0  0  0  0  0  0  0  0  0
    1.5334    1.8669   -1.9266 H   0  0  0  0  0  0  0  0  0  0  0  0
    0.7019    3.3798   -1.4051 H   0  0  0  0  0  0  0  0  0  0  0  0
    1.6299    2.4071   -0.1957 H   0  0  0  0  0  0  0  0  0  0  0  0
    0.5598   -0.8080   -1.2581 C   0  0  0  0  0  0  0  0  0  0  0  0
    0.6586   -1.8356   -0.8398 H   0  0  0  0  0  0  0  0  0  0  0  0
   -0.0744   -0.8526   -2.1721 H   0  0  0  0  0  0  0  0  0  0  0  0
    1.5775   -0.4656   -1.5505 H   0  0  0  0  0  0  0  0  0  0  0  0
  1  2  1  0  0  0  0
  1  5  1  0  0  0  0
  1  3  1  0  0  0  0
  1  4  1  0  0  0  0
  5  7  1  0  0  0  0
  5  8  1  0  0  0  0
  5  6  1  0  0  0  0
  8  9  1  0  0  0  0
  8 10  1  0  0  0  0
  8 17  1  0  0  0  0
 10 13  1  0  0  0  0
 10 12  1  0  0  0  0
 10 11  1  0  0  0  0
 13 14  1  0  0  0  0
 13 15  1  0  0  0  0
 13 16  1  0  0  0  0
 17 20  1  0  0  0  0
 17 18  1  0  0  0  0
 17 19  1  0  0  0  0
M  END
$$$$
C6H14_3_4
 OpenBabel09141505113D
VDW energy = 16.03
 20 19  0  0  0  0  0  0  0  0999 V2000
   -2.6543   -0.0563   -0.2580 C   0  0  0  0  0  0  0  0  0  0  0  0
   -2.5538   -0.2738   -1.3456 H   0  0  0  0  0  0  0  0  0  0  0  0
   -2.8010    1.0371   -0.1118 H   0  0  0  0  0  0  0  0  0  0  0  0
   -3.5590   -0.5793    0.1271 H   0  0  0  0  0  0  0  0  0  0  0  0
   -1.4201   -0.5466    0.5018 C   0  0  0  0  0  0  0  0  0  0  0  0
   -1.5106   -0.2384    1.5694 H   0  0  0  0  0  0  0  0  0  0  0  0
   -1.4555   -1.6586    0.4638 H   0  0  0  0  0  0  0  0  0  0  0  0
   -0.0662   -0.0617   -0.0723 C   0  0  0  0  0  0  0  0  0  0  0  0
    0.0043   -0.3982   -1.1339 H   0  0  0  0  0  0  0  0  0  0  0  0
    1.1401   -0.6578    0.6934 C   0  0  0  0  0  0  0  0  0  0  0  0
    1.0794   -0.3792    1.7714 H   0  0  0  0  0  0  0  0  0  0  0  0
    2.0805   -0.2193    0.2840 H   0  0  0  0  0  0  0  0  0  0  0  0
    1.2872   -2.1769    0.5857 C   0  0  0  0  0  0  0  0  0  0  0  0
    1.2594   -2.4974   -0.4804 H   0  0  0  0  0  0  0  0  0  0  0  0
    2.2635   -2.4857    1.0239 H   0  0  0  0  0  0  0  0  0  0  0  0
    0.4802   -2.6963    1.1488 H   0  0  0  0  0  0  0  0  0  0  0  0
    0.0421    1.4741   -0.0745 C   0  0  0  0  0  0  0  0  0  0  0  0
   -0.7240    1.9237   -0.7448 H   0  0  0  0  0  0  0  0  0  0  0  0
   -0.0958    1.8785    0.9545 H   0  0  0  0  0  0  0  0  0  0  0  0
    1.0387    1.7969   -0.4536 H   0  0  0  0  0  0  0  0  0  0  0  0
  1  2  1  0  0  0  0
  1  5  1  0  0  0  0
  1  3  1  0  0  0  0
  1  4  1  0  0  0  0
  5  7  1  0  0  0  0
  5  8  1  0  0  0  0
  5  6  1  0  0  0  0
  8  9  1  0  0  0  0
  8 10  1  0  0  0  0
  8 17  1  0  0  0  0
 10 13  1  0  0  0  0
 10 12  1  0  0  0  0
 10 11  1  0  0  0  0
 13 14  1  0  0  0  0
 13 15  1  0  0  0  0
 13 16  1  0  0  0  0
 17 20  1  0  0  0  0
 17 18  1  0  0  0  0
 17 19  1  0  0  0  0
M  END
$$$$
C6H14_3_5
 OpenBabel09141505113D
VDW energy = 16.04
 20 19  0  0  0  0  0  0  0  0999 V2000
   -2.6785   -0.1622   -0.0212 C   0  0  0  0  0  0  0  0  0  0  0  0
   -2.9605    0.0210   -1.0817 H   0  0  0  0  0  0  0  0  0  0  0  0
   -2.6808    0.8032    0.5340 H   0  0  0  0  0  0  0  0  0  0  0  0
   -3.4477   -0.8310    0.4276 H   0  0  0  0  0  0  0  0  0  0  0  0
   -1.3063   -0.8322    0.0731 C   0  0  0  0  0  0  0  0  0  0  0  0
   -1.1889   -1.1639    1.1316 H   0  0  0  0  0  0  0  0  0  0  0  0
   -1.3071   -1.7446   -0.5679 H   0  0  0  0  0  0  0  0  0  0  0  0
   -0.1104    0.0750   -0.3056 C   0  0  0  0  0  0  0  0  0  0  0  0
   -0.1778    1.0033    0.3100 H   0  0  0  0  0  0  0  0  0  0  0  0
   -0.1351    0.4793   -1.8000 C   0  0  0  0  0  0  0  0  0  0  0  0
   -1.0973    0.9920   -2.0251 H   0  0  0  0  0  0  0  0  0  0  0  0
   -0.0767   -0.4322   -2.4394 H   0  0  0  0  0  0  0  0  0  0  0  0
    0.9728    1.4470   -2.2209 C   0  0  0  0  0  0  0  0  0  0  0  0
    1.9652    0.9438   -2.2048 H   0  0  0  0  0  0  0  0  0  0  0  0
    0.7831    1.7999   -3.2600 H   0  0  0  0  0  0  0  0  0  0  0  0
    0.9956    2.3308   -1.5435 H   0  0  0  0  0  0  0  0  0  0  0  0
    1.2036   -0.6300    0.0775 C   0  0  0  0  0  0  0  0  0  0  0  0
    1.1830   -0.9454    1.1457 H   0  0  0  0  0  0  0  0  0  0  0  0
    1.3638   -1.5313   -0.5578 H   0  0  0  0  0  0  0  0  0  0  0  0
    2.0711    0.0563   -0.0438 H   0  0  0  0  0  0  0  0  0  0  0  0
  1  2  1  0  0  0  0
  1  5  1  0  0  0  0
  1  3  1  0  0  0  0
  1  4  1  0  0  0  0
  5  7  1  0  0  0  0
  5  8  1  0  0  0  0
  5  6  1  0  0  0  0
  8  9  1  0  0  0  0
  8 10  1  0  0  0  0
  8 17  1  0  0  0  0
 10 13  1  0  0  0  0
 10 12  1  0  0  0  0
 10 11  1  0  0  0  0
 13 14  1  0  0  0  0
 13 15  1  0  0  0  0
 13 16  1  0  0  0  0
 17 20  1  0  0  0  0
 17 18  1  0  0  0  0
 17 19  1  0  0  0  0
M  END
$$$$
